96

Pb 6.4 6.4 6.4
Pb 6.4 6.4 0
Pb 6.4 12.8 6.4
Pb 6.4 12.8 0
Pb 0 6.4 6.4
Pb 0 6.4 0
Pb 0 12.8 6.4
Pb 0 12.8 0
N 9.6 9.6 10.311
N 9.6 8.43118 3.0243
N 9.6 4.36882 9.4243
N 9.6 3.2 3.91105
N 9.6 2.03118 9.4243
N 9.6 10.7688 3.0243
N 3.2 9.6 3.91105
N 3.2 8.43118 9.4243
N 3.2 4.36882 3.0243
N 3.2 3.2 10.311
N 3.2 2.03118 3.0243
N 3.2 10.7688 9.4243
I 9.6 6.4 6.4
I 9.6 6.4 0
I 9.6 12.8 6.4
I 9.6 12.8 0
I 6.4 9.6 6.4
I 6.4 9.6 0
I 6.4 6.4 9.6
I 6.4 6.4 3.2
I 6.4 3.2 6.4
I 6.4 3.2 0
I 6.4 12.8 9.6
I 6.4 12.8 3.2
I 3.2 6.4 6.4
I 3.2 6.4 0
I 3.2 12.8 6.4
I 3.2 12.8 0
I 0 9.6 6.4
I 0 9.6 0
I 0 6.4 9.6
I 0 6.4 3.2
I 0 3.2 6.4
I 0 3.2 0
I 0 12.8 9.6
I 0 12.8 3.2
H 9.6 9.6 4.7195
H 9.6 8.32706 2.01133
H 9.6 7.57729 3.57523
H 9.6 5.22271 9.97523
H 9.6 4.47295 8.41133
H 9.6 3.2 11.1195
H 9.6 1.92706 8.41133
H 9.6 1.17729 9.97523
H 9.6 11.6227 3.57523
H 9.6 10.8729 2.01133
H 9.16635 4.14347 2.05508
H 9.16635 10.5435 8.45508
H 8.99975 8.75271 8.45508
H 8.99975 2.35271 2.05508
H 8.64521 9.68887 10.6878
H 8.64521 3.28887 4.28783
H 4.23389 9.50381 2.05508
H 4.23389 3.10381 8.45508
H 3.75436 3.98244 10.6878
H 3.75436 10.3824 4.28783
H 3.60043 8.72869 4.28783
H 3.60043 2.32869 10.6878
H 3.2 9.6 11.1195
H 3.2 8.32706 8.41133
H 3.2 7.57729 9.97523
H 3.2 5.22271 3.57523
H 3.2 4.47295 2.01133
H 3.2 3.2 4.7195
H 3.2 1.92706 2.01133
H 3.2 1.17729 3.57523
H 3.2 11.6227 9.97523
H 3.2 10.8729 8.41133
H 2.76635 4.14347 8.45508
H 2.76635 10.5435 2.05508
H 2.59975 8.75271 2.05508
H 2.59975 2.35271 8.45508
H 2.24521 9.68887 4.28783
H 2.24521 3.28887 10.6878
H 10.6339 9.50381 8.45508
H 10.6339 3.10381 2.05508
H 10.1544 3.98244 4.28783
H 10.1544 10.3824 10.6878
H 10.0004 8.72869 10.6878
H 10.0004 2.32869 4.28783
C 9.6 9.6 8.79899
C 9.6 9.6 3.62788
C 9.6 3.2 2.39899
C 9.6 3.2 10.0279
C 3.2 9.6 2.39899
C 3.2 9.6 10.0279
C 3.2 3.2 8.79899
C 3.2 3.2 3.62788
